Version 4.1
SHEET 1 1300 976
WIRE 0 0 -96 0
WIRE 112 0 80 0
WIRE 208 0 112 0
WIRE 352 0 288 0
WIRE -96 48 -96 0
WIRE 112 128 112 0
WIRE 160 128 112 128
WIRE 352 144 352 0
WIRE 352 144 224 144
WIRE 400 144 352 144
WIRE -352 160 -352 128
WIRE -272 160 -352 160
WIRE 160 160 144 160
WIRE -352 176 -352 160
WIRE -272 192 -272 160
WIRE -352 272 -352 256
WIRE 16 288 -96 288
WIRE 144 288 144 160
WIRE 144 288 96 288
WIRE 208 288 144 288
WIRE 352 288 352 144
WIRE 352 288 288 288
WIRE 144 368 144 288
WIRE 144 560 144 448
WIRE 144 560 64 560
WIRE 256 560 144 560
WIRE 496 560 336 560
WIRE 976 560 912 560
WIRE 144 688 144 560
WIRE 272 688 144 688
WIRE 496 704 496 560
WIRE 496 704 336 704
WIRE 720 704 496 704
WIRE 736 704 720 704
WIRE 832 704 832 560
WIRE 832 704 800 704
WIRE 864 704 832 704
WIRE 272 720 128 720
WIRE 976 720 976 560
WIRE 976 720 928 720
WIRE 1024 720 976 720
WIRE 864 736 800 736
WIRE 496 768 496 704
WIRE 128 848 128 720
WIRE 800 864 800 736
WIRE 496 896 496 848
FLAG -96 48 0
FLAG 400 144 vo
FLAG 192 176 vs-
FLAG 192 112 vs+
FLAG -96 288 vin
FLAG -272 192 0
FLAG -352 272 vs-
FLAG -352 48 vs+
FLAG -656 176 0
FLAG -656 96 vin
FLAG 304 736 vs-
FLAG 304 672 vs+
FLAG 128 848 0
FLAG 896 752 vs-
FLAG 896 688 vs+
FLAG 496 896 vs-
FLAG 800 864 0
SYMBOL res 96 -16 R90
WINDOW 0 0 56 VBottom 2
WINDOW 3 32 56 VTop 2
SYMATTR InstName R1
SYMATTR Value 1k
SYMBOL res 304 -16 R90
WINDOW 0 0 56 VBottom 2
WINDOW 3 32 56 VTop 2
SYMATTR InstName R2
SYMATTR Value 470
SYMBOL res 304 272 R90
WINDOW 0 0 56 VBottom 2
WINDOW 3 32 56 VTop 2
SYMATTR InstName R3
SYMATTR Value 470
SYMBOL res 112 272 R90
WINDOW 0 0 56 VBottom 2
WINDOW 3 32 56 VTop 2
SYMATTR InstName R4
SYMATTR Value 1k
SYMBOL res 160 464 R180
WINDOW 0 36 76 Left 2
WINDOW 3 36 40 Left 2
SYMATTR InstName RL
SYMATTR Value 510
SYMBOL voltage -352 32 R0
WINDOW 123 0 0 Left 0
WINDOW 39 0 0 Left 0
SYMATTR InstName V1
SYMATTR Value 10
SYMBOL voltage -352 272 R180
WINDOW 0 24 96 Left 2
WINDOW 3 24 16 Left 2
WINDOW 123 0 0 Left 0
WINDOW 39 0 0 Left 0
SYMATTR InstName V2
SYMATTR Value 10
SYMBOL voltage -656 80 R0
WINDOW 123 0 0 Left 0
WINDOW 39 0 0 Left 0
SYMATTR InstName vin
SYMATTR Value {vin}
SYMBOL OpAmps\\UniversalOpAmp1 192 144 R0
SYMATTR InstName U1
SYMBOL OpAmps\\UniversalOpAmp1 304 704 R0
SYMATTR InstName U2
SYMBOL res 480 752 R0
SYMATTR InstName R5
SYMATTR Value 1.6k
SYMBOL res 352 544 R90
WINDOW 0 0 56 VBottom 2
WINDOW 3 32 56 VTop 2
SYMATTR InstName Rf
SYMATTR Value 500
SYMBOL OpAmps\\UniversalOpAmp1 896 720 R0
SYMATTR InstName U3
SYMBOL res 816 688 R90
WINDOW 0 0 56 VBottom 2
WINDOW 3 32 56 VTop 2
SYMATTR InstName R6
SYMATTR Value 1k
SYMBOL res 928 544 R90
WINDOW 0 0 56 VBottom 2
WINDOW 3 32 56 VTop 2
SYMATTR InstName R7
SYMATTR Value 1k
TEXT 760 -24 Left 2 !.tran 50m
TEXT 712 104 Left 2 !.step param vin -10 10 10
