Version 4.1
SHEET 1 880 680
WIRE -192 -544 -256 -544
WIRE -192 -528 -192 -544
WIRE -256 -496 -256 -544
WIRE -256 -384 -256 -416
WIRE -160 -384 -256 -384
WIRE 0 -384 -80 -384
WIRE -256 -288 -256 -384
WIRE -176 -288 -256 -288
WIRE 0 -272 0 -384
WIRE 0 -272 -112 -272
WIRE -448 -256 -496 -256
WIRE -176 -256 -368 -256
WIRE -448 -160 -496 -160
WIRE -368 -160 -368 -256
WIRE 304 -112 160 -112
WIRE -624 -96 -624 -128
WIRE -624 -96 -736 -96
WIRE -736 -80 -736 -96
WIRE -624 -80 -624 -96
WIRE -448 -64 -480 -64
WIRE -368 -64 -368 -160
WIRE 160 -64 160 -112
WIRE 192 -64 160 -64
WIRE 304 -48 304 -112
WIRE 304 -48 256 -48
WIRE 320 -48 304 -48
WIRE 80 -32 80 -64
WIRE 192 -32 80 -32
WIRE 80 -16 80 -32
WIRE 80 96 80 64
WIRE -144 112 -240 112
WIRE -464 240 -496 240
WIRE -320 240 -320 112
WIRE -320 240 -384 240
WIRE -304 240 -320 240
WIRE -144 256 -144 112
WIRE -144 256 -240 256
WIRE -304 272 -368 272
WIRE -368 368 -368 272
FLAG -144 -304 Vs+
FLAG -144 -240 Vs-
FLAG -736 -80 0
FLAG -624 -208 Vs+
FLAG -624 0 Vs-
FLAG -496 -256 x
FLAG -496 -160 -y
FLAG -480 -64 z
FLAG -192 -528 0
FLAG 288 -320 0
FLAG 80 96 0
FLAG 80 -144 Vs+
FLAG 320 -48 x
FLAG -272 224 Vs+
FLAG -272 288 Vs-
FLAG -368 368 0
FLAG -144 256 -y
FLAG -496 240 x
FLAG 288 -400 z
FLAG 224 -80 Vs+
FLAG 224 -16 Vs-
SYMBOL voltage -624 -224 R0
WINDOW 123 0 0 Left 0
WINDOW 39 0 0 Left 0
SYMATTR InstName V1
SYMATTR Value 5
SYMBOL voltage -624 16 R180
WINDOW 0 24 96 Left 2
WINDOW 3 24 16 Left 2
WINDOW 123 0 0 Left 0
WINDOW 39 0 0 Left 0
SYMATTR InstName V2
SYMATTR Value 5
SYMBOL res -352 -272 R90
WINDOW 0 0 56 VBottom 2
WINDOW 3 32 56 VTop 2
SYMATTR InstName Ra
SYMATTR Value 2k
SYMBOL res -352 -176 R90
WINDOW 0 0 56 VBottom 2
WINDOW 3 32 56 VTop 2
SYMATTR InstName Rb
SYMATTR Value 1k
SYMBOL res -352 -80 R90
WINDOW 0 0 56 VBottom 2
WINDOW 3 32 56 VTop 2
SYMATTR InstName R3
SYMATTR Value 4k
SYMBOL OpAmps\\UniversalOpAmp -144 -272 R0
SYMATTR InstName U1
SYMBOL res -64 -400 R90
WINDOW 0 0 56 VBottom 2
WINDOW 3 32 56 VTop 2
SYMATTR InstName R1
SYMATTR Value 6k
SYMBOL res -240 -400 R180
WINDOW 0 36 76 Left 2
WINDOW 3 36 40 Left 2
SYMATTR InstName R2
SYMATTR Value 1k
SYMBOL voltage 288 -416 R0
WINDOW 123 0 0 Left 0
WINDOW 39 0 0 Left 0
SYMATTR InstName V3
SYMATTR Value SINE(0 1 50)
SYMBOL res 64 -160 R0
SYMATTR InstName R4
SYMATTR Value 4k
SYMBOL res 64 -32 R0
SYMATTR InstName R5
SYMATTR Value 1k
SYMBOL OpAmps\\UniversalOpAmp -272 256 R0
SYMATTR InstName U2
SYMBOL res -368 224 R90
WINDOW 0 0 56 VBottom 2
WINDOW 3 32 56 VTop 2
SYMATTR InstName R8
SYMATTR Value 10k
SYMBOL res -336 128 R270
WINDOW 0 32 56 VTop 2
WINDOW 3 0 56 VBottom 2
SYMATTR InstName R10
SYMATTR Value 10k
SYMBOL OpAmps\\UniversalOpAmp 224 -48 R0
SYMATTR InstName U3
TEXT 520 -128 Left 2 !.tran 50m
