Version 4.1
SHEET 1 880 680
WIRE 48 16 -64 16
WIRE 208 16 128 16
WIRE 368 16 208 16
WIRE 544 16 400 16
WIRE 640 16 544 16
WIRE 368 112 368 16
WIRE 400 112 400 16
WIRE -64 128 -64 16
WIRE 208 128 208 16
WIRE 544 144 544 16
WIRE 640 144 640 16
WIRE 640 256 640 224
WIRE -64 272 -64 208
WIRE 208 272 208 208
WIRE 384 272 384 176
WIRE 384 272 208 272
WIRE 544 272 544 224
WIRE 544 272 384 272
WIRE 384 288 384 272
WIRE 384 400 384 368
FLAG -64 272 0
FLAG 640 256 0
FLAG 384 400 0
SYMBOL voltage -64 112 R0
WINDOW 123 0 0 Left 0
WINDOW 39 0 0 Left 0
SYMATTR InstName V1
SYMATTR Value 1
SYMBOL res 144 0 R90
WINDOW 0 0 56 VBottom 2
WINDOW 3 32 56 VTop 2
SYMATTR InstName R1
SYMATTR Value 16k
SYMBOL res 224 224 R180
WINDOW 0 36 76 Left 2
WINDOW 3 36 40 Left 2
SYMATTR InstName R2
SYMATTR Value 10k
SYMBOL res 400 384 R180
WINDOW 0 36 76 Left 2
WINDOW 3 36 40 Left 2
SYMATTR InstName R3
SYMATTR Value 8k
SYMBOL res 560 240 R180
WINDOW 0 36 76 Left 2
WINDOW 3 36 40 Left 2
SYMATTR InstName R4
SYMATTR Value 8k
SYMBOL res 656 240 R180
WINDOW 0 36 76 Left 2
WINDOW 3 36 40 Left 2
SYMATTR InstName R5
SYMATTR Value 14628.57
SYMBOL OpAmps\\UniversalOpAmp1 384 144 R90
SYMATTR InstName U1
TEXT -176 -8 Left 2 !.tran 1m
