Version 4.1
SHEET 1 880 680
WIRE 336 -16 224 -16
WIRE 496 -16 416 -16
WIRE 112 96 -64 96
WIRE 224 96 224 -16
WIRE 224 96 192 96
WIRE 352 96 224 96
WIRE 496 112 496 -16
WIRE 496 112 416 112
WIRE 512 112 496 112
WIRE 352 128 320 128
WIRE -64 176 -64 96
WIRE 320 240 320 128
WIRE -64 288 -64 256
FLAG -64 288 0
FLAG 320 240 0
SYMBOL voltage -64 160 R0
WINDOW 123 0 0 Left 0
WINDOW 39 0 0 Left 0
SYMATTR InstName V1
SYMATTR Value SINE(0 1.5 60)
SYMBOL res 208 80 R90
WINDOW 0 0 56 VBottom 2
WINDOW 3 32 56 VTop 2
SYMATTR InstName R1
SYMATTR Value 16k
SYMBOL res 432 -32 R90
WINDOW 0 0 56 VBottom 2
WINDOW 3 32 56 VTop 2
SYMATTR InstName R2
SYMATTR Value 96k
SYMBOL OpAmps\\UniversalOpAmp1 384 112 R0
SYMATTR InstName U1
TEXT 520 112 Left 2 ;vo
TEXT -128 -64 Left 2 !.tran 100m
