Version 4.1
SHEET 1 896 680
WIRE 640 -64 512 -64
WIRE 784 -64 720 -64
WIRE 176 16 96 16
WIRE 304 16 256 16
WIRE 384 32 352 32
WIRE 512 32 512 -64
WIRE 512 32 464 32
WIRE 656 32 512 32
WIRE 784 48 784 -64
WIRE 784 48 720 48
WIRE 864 48 784 48
WIRE 656 64 608 64
WIRE -16 112 -64 112
WIRE 96 112 96 16
WIRE 96 112 64 112
WIRE 192 112 96 112
WIRE 304 128 304 16
WIRE 304 128 256 128
WIRE 384 128 304 128
WIRE 512 128 512 32
WIRE 512 128 464 128
WIRE 192 144 160 144
WIRE 608 160 608 64
WIRE -16 208 -64 208
WIRE 96 208 96 112
WIRE 96 208 64 208
WIRE 160 256 160 144
FLAG -320 128 0
FLAG -416 128 0
FLAG -512 128 0
FLAG -512 48 v1
FLAG -64 112 v1
FLAG -416 48 v2
FLAG -64 208 v2
FLAG -320 48 v3
FLAG 352 32 v3
FLAG 160 256 0
FLAG 608 160 0
SYMBOL res 80 96 R90
WINDOW 0 0 56 VBottom 2
WINDOW 3 32 56 VTop 2
SYMATTR InstName R1
SYMATTR Value 16k
SYMBOL res 80 192 R90
WINDOW 0 0 56 VBottom 2
WINDOW 3 32 56 VTop 2
SYMATTR InstName R2
SYMATTR Value 16k
SYMBOL res 480 16 R90
WINDOW 0 0 56 VBottom 2
WINDOW 3 32 56 VTop 2
SYMATTR InstName R3
SYMATTR Value 9k
SYMBOL res 272 0 R90
WINDOW 0 0 56 VBottom 2
WINDOW 3 32 56 VTop 2
SYMATTR InstName R4
SYMATTR Value 3k
SYMBOL res 480 112 R90
WINDOW 0 0 56 VBottom 2
WINDOW 3 32 56 VTop 2
SYMATTR InstName R5
SYMATTR Value 3k
SYMBOL res 736 -80 R90
WINDOW 0 0 56 VBottom 2
WINDOW 3 32 56 VTop 2
SYMATTR InstName R6
SYMATTR Value 3k
SYMBOL OpAmps\\UniversalOpAmp1 224 128 R0
SYMATTR InstName U1
SYMATTR Value2 Avol=1000000G GBW=1000000G Vos=0
SYMBOL OpAmps\\UniversalOpAmp1 688 48 R0
SYMATTR InstName U2
SYMATTR Value2 Avol=1000000G GBW=1000000G Vos=0
SYMBOL voltage -512 32 R0
WINDOW 123 0 0 Left 0
WINDOW 39 0 0 Left 0
SYMATTR InstName V1
SYMATTR Value 6
SYMBOL voltage -416 32 R0
WINDOW 123 0 0 Left 0
WINDOW 39 0 0 Left 0
SYMATTR InstName V2
SYMATTR Value 8
SYMBOL voltage -320 32 R0
WINDOW 123 0 0 Left 0
WINDOW 39 0 0 Left 0
SYMATTR InstName V3
SYMATTR Value 6
TEXT 864 48 Left 2 ;vo
TEXT -184 -96 Left 2 !.tran 1m
