Version 4.1
SHEET 1 880 680
WIRE 192 64 160 64
WIRE 320 64 272 64
WIRE 0 160 -48 160
WIRE 160 160 160 64
WIRE 160 160 80 160
WIRE 208 160 160 160
WIRE 320 176 320 64
WIRE 320 176 272 176
WIRE 368 176 320 176
WIRE 208 192 160 192
WIRE -48 224 -48 160
WIRE 160 272 160 192
WIRE 160 384 160 352
FLAG 160 384 0
FLAG -48 224 0
SYMBOL OpAmps\\UniversalOpAmp1 240 176 R0
SYMATTR InstName U1
SYMBOL res 96 144 R90
WINDOW 0 0 56 VBottom 2
WINDOW 3 32 56 VTop 2
SYMATTR InstName R1
SYMATTR Value 10k
SYMBOL res 288 48 R90
WINDOW 0 0 56 VBottom 2
WINDOW 3 32 56 VTop 2
SYMATTR InstName R2
SYMATTR Value 15k
SYMBOL voltage 160 256 R0
WINDOW 123 0 0 Left 0
WINDOW 39 0 0 Left 0
SYMATTR InstName Vs
SYMATTR Value SINE(0 7 64.45775195 0 0 90)
TEXT 376 152 Left 2 ;vo
TEXT -64 408 Left 2 !.tran 100m
