Version 4.1
SHEET 1 880 680
WIRE -256 32 -256 0
WIRE 176 80 112 80
WIRE 288 80 240 80
WIRE -16 96 -16 80
WIRE -48 112 -96 112
WIRE 112 128 112 80
WIRE 112 128 16 128
WIRE -384 144 -432 144
WIRE -256 144 -256 112
WIRE -256 144 -320 144
WIRE -48 144 -256 144
WIRE 112 144 112 128
WIRE 288 144 288 80
WIRE -256 160 -256 144
WIRE -16 176 -16 160
WIRE -96 240 -96 112
WIRE 112 240 112 224
WIRE 112 240 -96 240
WIRE 112 272 112 240
WIRE -256 288 -256 240
WIRE 288 320 288 224
WIRE 112 384 112 352
WIRE -624 416 -624 368
WIRE -480 416 -480 368
WIRE 112 480 112 448
WIRE -624 544 -624 496
WIRE -480 544 -480 496
FLAG 288 320 0
FLAG 112 480 0
FLAG -256 288 0
FLAG -432 144 Vs
FLAG -256 0 Vcc
FLAG -480 544 0
FLAG -624 544 0
FLAG -480 368 Vs
FLAG -624 368 Vcc
FLAG -16 176 0
FLAG -16 80 Vcc
SYMBOL res 96 128 R0
SYMATTR InstName R1
SYMATTR Value 90k
SYMBOL res 96 256 R0
SYMATTR InstName R2
SYMATTR Value 10k
SYMBOL res -272 16 R0
SYMATTR InstName R3
SYMATTR Value 31k
SYMBOL res -272 144 R0
SYMATTR InstName R4
SYMATTR Value 18k
SYMBOL res 272 128 R0
SYMATTR InstName R5
SYMATTR Value 84k
SYMBOL cap -320 128 R90
WINDOW 0 0 32 VBottom 2
WINDOW 3 32 32 VTop 2
SYMATTR InstName C1
SYMATTR Value 5”
SYMBOL cap 128 448 R180
WINDOW 0 24 56 Left 2
WINDOW 3 24 8 Left 2
SYMATTR InstName C2
SYMATTR Value 5”
SYMBOL cap 176 96 R270
WINDOW 0 32 32 VTop 2
WINDOW 3 0 32 VBottom 2
SYMATTR InstName C3
SYMATTR Value 5”
SYMBOL OpAmps\\opamp2 -16 64 R0
SYMATTR InstName U1
SYMATTR Value LM324
SYMBOL voltage -480 400 R0
WINDOW 123 0 0 Left 0
WINDOW 39 0 0 Left 0
SYMATTR InstName Vs
SYMATTR Value SINE(0 0.2 600 0 0 0)
SYMBOL voltage -624 400 R0
WINDOW 123 0 0 Left 0
WINDOW 39 0 0 Left 0
SYMATTR InstName Vcc
SYMATTR Value 6
TEXT 360 48 Left 2 !.include LM324.txt
TEXT 304 72 Left 2 ;Vo
TEXT 64 72 Left 2 ;Vx
TEXT -152 128 Left 2 ;Vi
TEXT 376 104 Left 2 !.tran 10m
